MPI startup(): Warning: I_MPI_PMI_LIBRARY will be ignored since the hydra process manager was found
 &NAMIO
 NTASK_MULTIO    =           2,
 NTASK_XIOS      =           0
 /
