MPI startup(): Warning: I_MPI_PMI_LIBRARY will be ignored since the hydra process manager was found
 &NAMIO
 NTASK_MULTIO    =           0,
 NTASK_XIOS      =           0
 /
MultIO initialising with plans file /gpfs/projects/bsc32/bsc631248/ifsnc_remote_dir/ifsnemo-build/ifsnemo/raps/multio_yaml/multio-ifs-wam-config.yaml
