 &NAMCTL
 LN_CTL  = F,
 SN_CFCTL%L_CONFIG        = T,
 SN_CFCTL%L_RUNSTAT       = T,
 SN_CFCTL%L_TRCSTAT       = F,
 SN_CFCTL%L_OCEOUT        = F,
 SN_CFCTL%L_LAYOUT        = F,
 SN_CFCTL%L_MPPOUT        = F,
 SN_CFCTL%L_MPPTOP        = F,
 SN_CFCTL%PROCMIN =           0,
 SN_CFCTL%PROCMAX =     1000000,
 SN_CFCTL%PROCINCR        =           1,
 SN_CFCTL%PTIMINCR        =           1,
 NN_PRINT        =           0,
 NN_ICTLS        =           0,
 NN_ICTLE        =           0,
 NN_ISPLT        =           1,
 NN_JSPLT        =           1,
 NN_JCTLS        =           0,
 NN_JCTLE        =           0,
 LN_TIMING       = T,
 LN_DIACFL       = F,
 LN_TIMING_DETAIL        = T,
 LN_SMSLABEL     = F,
 CN_SMSLABEL     = ecflow_client --label                                           ,
 CN_SMSEVENT     = ecflow_client --event                                           ,
 NN_SMSFRQ       =           0,
 LN_SGLREAD      = F,
 LN_SGLWRITE     = F,
 LN_TIMING_ONEFILE       = T,
 LN_TIMING_BARRIER       = F,
 LN_TIMING_CHECK = F,
 NN_OMPOPT       =           2,
 NN_OMPHT        =           2,
 LN_WRITE_DOMAINS        = F,
 LN_DIAWRI_INSTANT       = T,
 LN_DIAWRI_FULL  = F,
 CN_DIAWRI_OUTDIR        = ./                                                                                                        
                                                                                                                                     
                   ,
 LN_MPPWRITE     = F,
 LN_MPPWRITE_ABT = F,
 LN_NEMOSTAT     = F
 /
 &NAMCFG
 LN_READ_CFG     = T,
 CN_DOMCFG       = domain_cfg                                                                                                        
                                                                                                                                     
           ,
 LN_CLOSEA       = F,
 LN_WRITE_CFG    = F,
 CN_DOMCFG_OUT   = domain_cfg_out                                                                                                    
                                                                                                                                     
           ,
 LN_USE_JATTR    = F
 /
 &NAMMPP
 JPNI    =          -1,
 JPNJ    =          -1,
 LN_NNOGATHER    = T,
 LN_LISTONLY     = F
 /
 &NAMEOS
 LN_TEOS10       = T,
 LN_EOS80        = F,
 LN_SEOS = F,
 RN_A0   =  0.165500000000000     ,
 RN_B0   =  0.765540000000000     ,
 RN_LAMBDA1      =  5.952000000000000E-002,
 RN_MU1  =  1.497000000000000E-004,
 RN_LAMBDA2      =  7.491400000000000E-004,
 RN_MU2  =  1.109000000000000E-005,
 RN_NU   =  2.434100000000000E-003
 /
 &NAMWAD
 LN_WD_IL        = F,
 LN_WD_DL        = F,
 RN_WDMIN0       =  0.300000000000000     ,
 RN_WDMIN1       =  0.200000000000000     ,
 RN_WDMIN2       =  1.000000000000000E-004,
 RN_WDLD =   2.50000000000000     ,
 NN_WDIT =          20,
 LN_WD_DL_BC     = F,
 LN_WD_DL_RMP    = F,
 RN_WD_SBCDEP    =   5.00000000000000     ,
 RN_WD_SBCFRA    =  0.999000000000000     
 /
 &NAMRUN
 CN_OCERST_INDIR = .                                                                                                                 
                                                                                                                                     
           ,
 CN_OCERST_OUTDIR        = restart.dir/                                                                                              
                                                                                                                                     
                   ,
 NN_STOCKLIST    = 10*0,
 LN_RST_LIST     = F,
 NN_NO   =           0,
 CN_EXP  = t001                                                                                                                      
                                                                                                                                     
   ,
 CN_OCERST_IN    = restart                                                                                                           
                                                                                                                                     
           ,
 CN_OCERST_OUT   = restart                                                                                                           
                                                                                                                                     
           ,
 LN_RSTART       = T,
 NN_RSTCTL       =           0,
 NN_IT000        =           1,
 NN_ITEND        =         240,
 NN_DATE0        =    19900101,
 NN_TIME0        =           0,
 NN_LEAPY        =           1,
 NN_ISTATE       =           0,
 NN_STOCK        =         240,
 NN_WRITE        =          -1,
 LN_MSKLAND      = T,
 LN_CLOBBER      = T,
 NN_CHUNKSZ      =           0,
 NN_EULER        =           1,
 LN_CFMETA       = T,
 LN_ISCPL        = F,
 LN_XIOS_READ    = F,
 NN_WXIOS        =           0,
 LN_RSTDATE      = F,
 LN_WRITERST     = T,
 LN_RSTTIME      = T,
 NN_SLIMRST      =           0,
 NN_SLIMRSTIN    =           0,
 LN_RCF_READ     = F,
 LN_RCF_WRITE    = T
 /
 &NAMDOM
 LN_LINSSH       = F,
 RN_ISFHMIN      =   1.00000000000000     ,
 RN_RDT  =   360.000000000000     ,
 RN_ATFP =  0.100000000000000     ,
 LN_CRS  = F,
 LN_MESHMASK     = F
 /
 &NAMNC4
 NN_NCHUNKS_I    =           4,
 NN_NCHUNKS_J    =           4,
 NN_NCHUNKS_K    =          75,
 LN_NC4ZIP       = T
 /
 &NAMLBC
 RN_SHLAT        =  0.000000000000000E+000,
 LN_VORLAT       = F,
 LN_SHLAT2D      = T,
 CN_SHLAT2D_FILE = shlat2d.nc                                                                                                        
                                                                                                                                     
           ,
 CN_SHLAT2D_VAR  = shlat2d                                                                                                           
                                                                                                                                     
           
 /
 &NAM_VVL
 LN_VVL_ZSTAR    = T,
 LN_VVL_ZTILDE   = F,
 LN_VVL_LAYER    = F,
 LN_VVL_ZTILDE_AS_ZSTAR  = F,
 LN_VVL_ZSTAR_AT_EQTOR   = F,
 RN_AHE3 =  0.000000000000000E+000,
 RN_RST_E3T      =   30.0000000000000     ,
 RN_LF_CUTOFF    =   5.00000000000000     ,
 RN_ZDEF_MAX     =  0.900000000000000     ,
 LN_VVL_DBG      = F
 /
 &NAMTSD
 LN_TSD_INIT     = F,
 LN_TSD_DMP      = F,
 CN_DIR  = ./                                                                                                  ,
 SN_TEM%CLNAME  = NOT USED                                                                                                           
                                                                                                                                     
          ,
 SN_TEM%FREQH   =  -12.0000000000000     ,
 SN_TEM%CLVAR   = bigthetao                         ,
 SN_TEM%LN_TINT = T,
 SN_TEM%LN_CLIM = T,
 SN_TEM%CLTYPE  = yearly  ,
 SN_TEM%WNAME   =                                                                                                                    
                                                                                                                                     
          ,
 SN_TEM%VCOMP   =                                   ,
 SN_TEM%LNAME   =                                   ,
 SN_SAL%CLNAME  = NOT USED                                                                                                           
                                                                                                                                     
          ,
 SN_SAL%FREQH   =  -12.0000000000000     ,
 SN_SAL%CLVAR   = sa                                ,
 SN_SAL%LN_TINT = T,
 SN_SAL%LN_CLIM = T,
 SN_SAL%CLTYPE  = yearly  ,
 SN_SAL%WNAME   =                                                                                                                    
                                                                                                                                     
          ,
 SN_SAL%VCOMP   =                                   ,
 SN_SAL%LNAME   =                                   
 /
 &NAMZDF
 LN_ZDFCST       = F,
 LN_ZDFRIC       = F,
 LN_ZDFTKE       = T,
 LN_ZDFGLS       = F,
 LN_ZDFOSM       = F,
 LN_ZDFEVD       = T,
 NN_EVDM =           1,
 RN_EVD  =   10.0000000000000     ,
 LN_ZDFNPC       = F,
 NN_NPC  =           1,
 NN_NPCP =         365,
 LN_ZDFDDM       = T,
 RN_AVTS =  1.000000000000000E-004,
 RN_HSBFR        =   1.60000000000000     ,
 LN_ZDFSWM       = F,
 LN_ZDFIWM       = F,
 LN_ZAD_AIMP     = F,
 LN_ZDFTMX       = T,
 RN_AVM0 =  1.200000000000000E-004,
 RN_AVT0 =  1.200000000000000E-005,
 NN_AVB  =           0,
 NN_HAVTB        =           1
 /
 &NAMZDF_TKE
 RN_EDIFF        =  0.100000000000000     ,
 RN_EDISS        =  0.700000000000000     ,
 RN_EBB  =   67.8300000000000     ,
 RN_EMIN =  1.000000000000000E-006,
 RN_EMIN0        =  1.000000000000000E-004,
 RN_BSHEAR       =  9.999999999999999E-021,
 NN_MXL  =           3,
 LN_MXL0 = T,
 RN_MXL0 =  4.000000000000000E-002,
 NN_MXLICE       =           2,
 RN_MXLICE       =   10.0000000000000     ,
 NN_PDL  =           1,
 LN_LC   = T,
 RN_LC   =  0.150000000000000     ,
 NN_ETAU =           1,
 NN_HTAU =           4,
 RN_EFR  =  5.000000000000000E-002,
 NN_EICE =           0,
 RN_WHTAUSCL     =   2.00000000000000     ,
 RN_WHTAUMIN     =   1.00000000000000     ,
 LN_WAVETKE      = T,
 LN_EBBAVG       = T,
 RN_SWHFR        =  0.250000000000000     
 /
 &NAMZDF_TMX
 RN_HTMX =   500.000000000000     ,
 RN_N2MIN        =  1.000000000000000E-008,
 RN_TFE  =  0.333000000000000     ,
 RN_ME   =  0.200000000000000     ,
 LN_TMX_ITF      = T,
 RN_TFE_ITF      =   1.00000000000000     
 /
 &NAMDRG
 LN_DRG_OFF      = F,
 LN_LIN  = F,
 LN_NON_LIN      = T,
 LN_LOGLAYER     = F,
 LN_DRGIMP       = F,
 LN_DRGICE_IMP   = F
 /
 &NAMDRG_BOT
 RN_CD0  =  1.000000000000000E-003,
 RN_UC0  =  0.400000000000000     ,
 RN_CDMAX        =  0.100000000000000     ,
 RN_KE0  =  2.500000000000000E-003,
 RN_Z0   =  3.000000000000000E-003,
 LN_BOOST        = T,
 RN_BOOST        =   50.0000000000000     
 /
 &NAM_TIDE
 LN_TIDE = F,
 LN_TIDE_POT     = T,
 LN_SCAL_LOAD    = F,
 LN_READ_LOAD    = F,
 CN_TIDE_LOAD    = tide_LOAD_grid_T.nc                                                                                               
                                                                                                                                     
           ,
 LN_TIDE_RAMP    = F,
 RN_SCAL_LOAD    =  9.400000000000000E-002,
 RDTTIDERAMP     =  0.000000000000000E+000,
 CLNAME  = DUMM                                                                        
 /
 &NAMSBC
 NN_FSBC =           1,
 LN_USR  = F,
 LN_FLX  = F,
 LN_BLK  = F,
 LN_PERT = F,
 LN_CPL  = F,
 LN_MIXCPL       = F,
 NN_COMPONENTS   =           0,
 NN_ICE  =           2,
 LN_ICE_EMBD     = F,
 LN_TRAQSR       = T,
 LN_DM2DC        = F,
 LN_RNF  = T,
 NN_FWB  =           0,
 LN_SSR  = F,
 LN_ISF  = T,
 LN_APR_DYN      = F,
 LN_WAVE = T,
 LN_CDGW = F,
 LN_SDW  = T,
 LN_TAUWOC       = F,
 LN_STCOR        = T,
 LN_TAUW = T,
 NN_LSM  =          -3,
 NN_SDRIFT       =           1,
 NN_HBP  =           1,
 NN_HST  =           0,
 LN_WSPD = F,
 LN_RHOAW        = F,
 NN_SDTRANS      =          -1,
 LN_WVINICE      = F,
 LN_CHARNOCK     = F,
 LN_SGLREAD_SBC  = F,
 LN_LIMCPLCLD    = F,
 LN_LIMCPLLCC    = F,
 LN_ICECPLCAT    = F
 /
 &NAMSBC_ISF
 NN_ISFBLK       =           1,
 RN_HISF_TBL     =   30.0000000000000     ,
 RN_GAMMAT0      =  1.000000000000000E-004,
 RN_GAMMAS0      =  1.000000000000000E-004,
 NN_GAMMABLK     =           1,
 NN_ISF  =           3,
 SN_FWFISF%CLNAME  = NOT USED                                                                                                        
                                                                                                                                     
             ,
 SN_FWFISF%FREQH   =  -12.0000000000000     ,
 SN_FWFISF%CLVAR   = sowflisf                          ,
 SN_FWFISF%LN_TINT = F,
 SN_FWFISF%LN_CLIM = T,
 SN_FWFISF%CLTYPE  = yearly  ,
 SN_FWFISF%WNAME   =                                                                                                                 
                                                                                                                                     
             ,
 SN_FWFISF%VCOMP   =                                   ,
 SN_FWFISF%LNAME   =                                   ,
 SN_RNFISF%CLNAME  = runoff_1m_nomask.nc                                                                                             
                                                                                                                                     
             ,
 SN_RNFISF%FREQH   =  -1.00000000000000     ,
 SN_RNFISF%CLVAR   = sofwfisf                          ,
 SN_RNFISF%LN_TINT = F,
 SN_RNFISF%LN_CLIM = T,
 SN_RNFISF%CLTYPE  = yearly  ,
 SN_RNFISF%WNAME   =                                                                                                                 
                                                                                                                                     
             ,
 SN_RNFISF%VCOMP   =                                   ,
 SN_RNFISF%LNAME   =                                   ,
 SN_DEPMAX_ISF%CLNAME  = runoff_1m_nomask.nc                                                                                         
                                                                                                                                     
                 ,
 SN_DEPMAX_ISF%FREQH   =  0.000000000000000E+000,
 SN_DEPMAX_ISF%CLVAR   = sozisfmax                         ,
 SN_DEPMAX_ISF%LN_TINT = F,
 SN_DEPMAX_ISF%LN_CLIM = T,
 SN_DEPMAX_ISF%CLTYPE  = yearly  ,
 SN_DEPMAX_ISF%WNAME   =                                                                                                             
                                                                                                                                     
                 ,
 SN_DEPMAX_ISF%VCOMP   =                                   ,
 SN_DEPMAX_ISF%LNAME   =                                   ,
 SN_DEPMIN_ISF%CLNAME  = runoff_1m_nomask.nc                                                                                         
                                                                                                                                     
                 ,
 SN_DEPMIN_ISF%FREQH   =  0.000000000000000E+000,
 SN_DEPMIN_ISF%CLVAR   = sozisfmin                         ,
 SN_DEPMIN_ISF%LN_TINT = F,
 SN_DEPMIN_ISF%LN_CLIM = T,
 SN_DEPMIN_ISF%CLTYPE  = yearly  ,
 SN_DEPMIN_ISF%WNAME   =                                                                                                             
                                                                                                                                     
                 ,
 SN_DEPMIN_ISF%VCOMP   =                                   ,
 SN_DEPMIN_ISF%LNAME   =                                   ,
 SN_LEFF_ISF%CLNAME  = NOT USED                                                                                                      
                                                                                                                                     
               ,
 SN_LEFF_ISF%FREQH   =  -12.0000000000000     ,
 SN_LEFF_ISF%CLVAR   = leff                              ,
 SN_LEFF_ISF%LN_TINT = F,
 SN_LEFF_ISF%LN_CLIM = T,
 SN_LEFF_ISF%CLTYPE  = yearly  ,
 SN_LEFF_ISF%WNAME   =                                                                                                               
                                                                                                                                     
               ,
 SN_LEFF_ISF%VCOMP   =                                   ,
 SN_LEFF_ISF%LNAME   =                                   
 /
 &NAMSBC_RNF
 CN_DIR  = ./                                                                                                  ,
 LN_RNF_DEPTH    = F,
 LN_RNF_TEM      = T,
 LN_RNF_SAL      = F,
 LN_RNF_ICB      = F,
 SN_RNF%CLNAME  = runoff_1m_nomask.nc                                                                                                
                                                                                                                                     
          ,
 SN_RNF%FREQH   =  -1.00000000000000     ,
 SN_RNF%CLVAR   = sornficb                          ,
 SN_RNF%LN_TINT = T,
 SN_RNF%LN_CLIM = T,
 SN_RNF%CLTYPE  = yearly  ,
 SN_RNF%WNAME   =                                                                                                                    
                                                                                                                                     
          ,
 SN_RNF%VCOMP   =                                   ,
 SN_RNF%LNAME   =                                   ,
 SN_CNF%CLNAME  = runoff_1m_nomask.nc                                                                                                
                                                                                                                                     
          ,
 SN_CNF%FREQH   =  0.000000000000000E+000,
 SN_CNF%CLVAR   = socoefr                           ,
 SN_CNF%LN_TINT = F,
 SN_CNF%LN_CLIM = T,
 SN_CNF%CLTYPE  = yearly  ,
 SN_CNF%WNAME   =                                                                                                                    
                                                                                                                                     
          ,
 SN_CNF%VCOMP   =                                   ,
 SN_CNF%LNAME   =                                   ,
 SN_I_RNF%CLNAME  = NOT_USED                                                                                                         
                                                                                                                                     
            ,
 SN_I_RNF%FREQH   =  -1.00000000000000     ,
 SN_I_RNF%CLVAR   = sorunoff                          ,
 SN_I_RNF%LN_TINT = T,
 SN_I_RNF%LN_CLIM = T,
 SN_I_RNF%CLTYPE  = yearly  ,
 SN_I_RNF%WNAME   =                                                                                                                  
                                                                                                                                     
            ,
 SN_I_RNF%VCOMP   =                                   ,
 SN_I_RNF%LNAME   =                                   ,
 SN_S_RNF%CLNAME  = NOT USED                                                                                                         
                                                                                                                                     
            ,
 SN_S_RNF%FREQH   =   24.0000000000000     ,
 SN_S_RNF%CLVAR   = rosaline                          ,
 SN_S_RNF%LN_TINT = T,
 SN_S_RNF%LN_CLIM = T,
 SN_S_RNF%CLTYPE  = yearly  ,
 SN_S_RNF%WNAME   =                                                                                                                  
                                                                                                                                     
            ,
 SN_S_RNF%VCOMP   =                                   ,
 SN_S_RNF%LNAME   =                                   ,
 SN_T_RNF%CLNAME  = runoff_1m_nomask.nc                                                                                              
                                                                                                                                     
            ,
 SN_T_RNF%FREQH   =  -12.0000000000000     ,
 SN_T_RNF%CLVAR   = icbrnftemper                      ,
 SN_T_RNF%LN_TINT = F,
 SN_T_RNF%LN_CLIM = T,
 SN_T_RNF%CLTYPE  = yearly  ,
 SN_T_RNF%WNAME   =                                                                                                                  
                                                                                                                                     
            ,
 SN_T_RNF%VCOMP   =                                   ,
 SN_T_RNF%LNAME   =                                   ,
 SN_DEP_RNF%CLNAME  = NOT USED                                                                                                       
                                                                                                                                     
              ,
 SN_DEP_RNF%FREQH   =  0.000000000000000E+000,
 SN_DEP_RNF%CLVAR   = rodepth                           ,
 SN_DEP_RNF%LN_TINT = F,
 SN_DEP_RNF%LN_CLIM = T,
 SN_DEP_RNF%CLTYPE  = yearly  ,
 SN_DEP_RNF%WNAME   =                                                                                                                
                                                                                                                                     
              ,
 SN_DEP_RNF%VCOMP   =                                   ,
 SN_DEP_RNF%LNAME   =                                   ,
 LN_RNF_MOUTH    = T,
 RN_HRNF =   10.0000000000000     ,
 RN_AVT_RNF      =  2.000000000000000E-003,
 RN_RFACT        =   1.00000000000000     ,
 LN_RNF_DEPTH_INI        = F,
 RN_DEP_MAX      =   150.000000000000     ,
 RN_RNF_MAX      =  5.735000000000000E-004,
 NN_RNF_DEPTH_FILE       =           0,
 LN_RNF_TEM_MASK = F
 /
 &NAMSBC_WAVE
 SN_CDG%CLNAME  = cdww                                                                                                               
                                                                                                                                     
          ,
 SN_CDG%FREQH   =   6.00000000000000     ,
 SN_CDG%CLVAR   = cdww                              ,
 SN_CDG%LN_TINT = F,
 SN_CDG%LN_CLIM = F,
 SN_CDG%CLTYPE  = monthly ,
 SN_CDG%WNAME   =                                                                                                                    
                                                                                                                                     
          ,
 SN_CDG%VCOMP   =                                   ,
 SN_CDG%LNAME   =                                   ,
 SN_WSPD%CLNAME  = wspd                                                                                                              
                                                                                                                                     
           ,
 SN_WSPD%FREQH   =   6.00000000000000     ,
 SN_WSPD%CLVAR   = wspd                              ,
 SN_WSPD%LN_TINT = F,
 SN_WSPD%LN_CLIM = F,
 SN_WSPD%CLTYPE  = monthly ,
 SN_WSPD%WNAME   =                                                                                                                   
                                                                                                                                     
           ,
 SN_WSPD%VCOMP   =                                   ,
 SN_WSPD%LNAME   =                                   ,
 CN_DIR  = ./                                                                                                  ,
 SN_USD%CLNAME  = ust                                                                                                                
                                                                                                                                     
          ,
 SN_USD%FREQH   =   6.00000000000000     ,
 SN_USD%CLVAR   = ust                               ,
 SN_USD%LN_TINT = F,
 SN_USD%LN_CLIM = F,
 SN_USD%CLTYPE  = monthly ,
 SN_USD%WNAME   =                                                                                                                    
                                                                                                                                     
          ,
 SN_USD%VCOMP   =                                   ,
 SN_USD%LNAME   =                                   ,
 SN_VSD%CLNAME  = vst                                                                                                                
                                                                                                                                     
          ,
 SN_VSD%FREQH   =   6.00000000000000     ,
 SN_VSD%CLVAR   = vst                               ,
 SN_VSD%LN_TINT = F,
 SN_VSD%LN_CLIM = F,
 SN_VSD%CLTYPE  = monthly ,
 SN_VSD%WNAME   =                                                                                                                    
                                                                                                                                     
          ,
 SN_VSD%VCOMP   =                                   ,
 SN_VSD%LNAME   =                                   ,
 SN_HSW%CLNAME  = swh                                                                                                                
                                                                                                                                     
          ,
 SN_HSW%FREQH   =   6.00000000000000     ,
 SN_HSW%CLVAR   = swh                               ,
 SN_HSW%LN_TINT = F,
 SN_HSW%LN_CLIM = F,
 SN_HSW%CLTYPE  = monthly ,
 SN_HSW%WNAME   =                                                                                                                    
                                                                                                                                     
          ,
 SN_HSW%VCOMP   =                                   ,
 SN_HSW%LNAME   =                                   ,
 SN_WMP%CLNAME  = mwp                                                                                                                
                                                                                                                                     
          ,
 SN_WMP%FREQH   =   6.00000000000000     ,
 SN_WMP%CLVAR   = mwp                               ,
 SN_WMP%LN_TINT = F,
 SN_WMP%LN_CLIM = F,
 SN_WMP%CLTYPE  = monthly ,
 SN_WMP%WNAME   =                                                                                                                    
                                                                                                                                     
          ,
 SN_WMP%VCOMP   =                                   ,
 SN_WMP%LNAME   =                                   ,
 SN_MP1%CLNAME  = mp1                                                                                                                
                                                                                                                                     
          ,
 SN_MP1%FREQH   =   6.00000000000000     ,
 SN_MP1%CLVAR   = mp1                               ,
 SN_MP1%LN_TINT = F,
 SN_MP1%LN_CLIM = F,
 SN_MP1%CLTYPE  = monthly ,
 SN_MP1%WNAME   =                                                                                                                    
                                                                                                                                     
          ,
 SN_MP1%VCOMP   =                                   ,
 SN_MP1%LNAME   =                                   ,
 SN_WFR%CLNAME  = sdw_wave                                                                                                           
                                                                                                                                     
          ,
 SN_WFR%FREQH   =   6.00000000000000     ,
 SN_WFR%CLVAR   = wfr                               ,
 SN_WFR%LN_TINT = F,
 SN_WFR%LN_CLIM = F,
 SN_WFR%CLTYPE  = monthly ,
 SN_WFR%WNAME   =                                                                                                                    
                                                                                                                                     
          ,
 SN_WFR%VCOMP   =                                   ,
 SN_WFR%LNAME   =                                   ,
 SN_WNUM%CLNAME  = sdw_wave                                                                                                          
                                                                                                                                     
           ,
 SN_WNUM%FREQH   =   6.00000000000000     ,
 SN_WNUM%CLVAR   = wave_num                          ,
 SN_WNUM%LN_TINT = F,
 SN_WNUM%LN_CLIM = F,
 SN_WNUM%CLTYPE  = monthly ,
 SN_WNUM%WNAME   =                                                                                                                   
                                                                                                                                     
           ,
 SN_WNUM%VCOMP   =                                   ,
 SN_WNUM%LNAME   =                                   ,
 SN_TAUWOC%CLNAME  = tauoc                                                                                                           
                                                                                                                                     
             ,
 SN_TAUWOC%FREQH   =   6.00000000000000     ,
 SN_TAUWOC%CLVAR   = tauoc                             ,
 SN_TAUWOC%LN_TINT = F,